Circuit: * Z:\home\archman\Circuit-Prototype\read-rope\ltspice-sim-with-load.asc

Direct Newton iteration for .op point succeeded.

Date: Mon Sep 16 16:20:08 2019
Total elapsed time: 0.319 seconds.

tnom = 27
temp = 27
method = trap
totiter = 3
traniter = 0
tranpoints = 0
accept = 0
rejected = 0
matrix size = 3
fillins = 0
solver = Normal
Matrix Compiler1: 50 bytes object code size
Matrix Compiler2: 175 bytes object code size
